Infrared Spectrum: n-Undecane
Formula: C11 H24
CAS: 1120-21-4
State: SOLUTION (10% CCl4 FOR 3800-1330, 10% CS2 FOR 1330-450 CM^-^1)
Class: COBLENTZ III
Instrument: DOW KBr FOREPRISM-GRATING
Instrument parameters: BLAZED AT 3.5, 12.0, 20.0 MICRON AND CHANGED AT 5.0, 7.5, 14.9 MICRON
Sampling: TRANSMISSION
Path length: 0.012 CM, 0.011 CM
Resolution: 2
Origin: DOW CHEMICAL COMPANY
1/CM	TRANSMITTANCE
3774	0.9153
3765	0.9214
3756	0.9256
3747	0.9279
3738	0.9303
3729	0.93
3720	0.929
3711	0.929
3702	0.9282
3693	0.9166
3684	0.9134
3675	0.9177
3666	0.9207
3657	0.9218
3648	0.9216
3639	0.9213
3630	0.9225
3621	0.9232
3612	0.9236
3603	0.9245
3594	0.9265
3585	0.9285
3576	0.9301
3567	0.9302
3558	0.9309
3549	0.9321
3540	0.9325
3531	0.9337
3522	0.9318
3513	0.9313
3504	0.9307
3495	0.9297
3486	0.9285
3477	0.9266
3468	0.9215
3459	0.9172
3450	0.9158
3441	0.9159
3432	0.9135
3423	0.9114
3414	0.9097
3405	0.9084
3396	0.9078
3387	0.9078
3378	0.9082
3369	0.9097
3360	0.9107
3351	0.9116
3342	0.9137
3333	0.9122
3324	0.9119
3315	0.9119
3306	0.9138
3297	0.9122
3288	0.9124
3279	0.9142
3270	0.9143
3261	0.9145
3252	0.9145
3243	0.9142
3234	0.913
3225	0.9108
3216	0.9108
3207	0.9064
3198	0.9039
3189	0.9013
3180	0.8992
3171	0.8992
3162	0.8997
3153	0.9001
3144	0.8979
3135	0.8983
3126	0.8962
3117	0.8933
3108	0.8885
3099	0.8866
3090	0.8846
3081	0.8733
3072	0.8683
3063	0.855
3054	0.8444
3045	0.8325
3036	0.8169
3027	0.7856
3018	0.7487
3009	0.7012
3000	0.6433
2991	0.4894
2982	0.3361
2973	0.0716
2964	0.0076
2955	0.0058
2946	0.0125
2937	0.0096
2928	0.0065
2919	0.0058
2910	0.0072
2901	0.0215
2892	0.0624
2883	0.0982
2874	0.0203
2865	0.0228
2856	0.003
2847	0.0681
2838	0.2743
2829	0.5062
2820	0.6135
2811	0.6948
2802	0.7419
2793	0.7726
2784	0.796
2775	0.8176
2766	0.835
2757	0.8435
2748	0.8465
2739	0.8385
2730	0.8277
2721	0.8352
2712	0.849
2703	0.8592
2694	0.8605
2685	0.851
2676	0.8445
2667	0.8408
2658	0.8415
2649	0.8502
2640	0.8595
2631	0.8652
2622	0.8701
2613	0.8735
2604	0.8774
2595	0.8813
2586	0.8855
2577	0.8897
2568	0.8949
2559	0.9002
2550	0.9054
2541	0.9102
2532	0.9141
2523	0.9177
2514	0.9201
2505	0.9217
2496	0.9232
2487	0.9243
2478	0.9269
2469	0.9275
2460	0.9282
2451	0.9291
2442	0.9292
2433	0.9292
2424	0.9289
2415	0.9282
2406	0.9271
2397	0.9242
2388	0.9248
2379	0.9291
2370	0.9342
2361	0.9333
2352	0.939
2343	0.9379
2334	0.9357
2325	0.9325
2316	0.9251
2307	0.9222
2298	0.9211
2289	0.9199
2280	0.9183
2271	0.9172
2262	0.918
2253	0.9167
2244	0.9171
2235	0.9186
2226	0.9204
2217	0.9204
2208	0.9221
2199	0.9235
2190	0.9224
2181	0.9228
2172	0.9247
2163	0.9234
2154	0.9238
2145	0.9251
2136	0.9262
2127	0.9274
2118	0.9283
2109	0.9297
2100	0.9308
2091	0.9311
2082	0.9309
2073	0.9307
2064	0.9286
2055	0.9265
2046	0.9214
2037	0.9207
2028	0.9237
2019	0.9226
2010	0.9204
2001	0.9215
1992	0.924
1983	0.9336
1974	0.9329
1965	0.9364
1956	0.9466
1947	0.9361
1938	0.935
1929	0.9344
1920	0.9347
1911	0.9311
1902	0.932
1893	0.9336
1884	0.9342
1875	0.935
1866	0.9311
1857	0.9327
1848	0.9287
1839	0.9295
1830	0.9301
1821	0.9318
1812	0.9348
1803	0.9317
1794	0.9323
1785	0.9347
1776	0.936
1767	0.9315
1758	0.9355
1749	0.9344
1740	0.9313
1731	0.9292
1722	0.9273
1713	0.9312
1704	0.9329
1695	0.9299
1686	0.9261
1677	0.9236
1668	0.9224
1659	0.92
1650	0.9121
1641	0.906
1632	0.9113
1623	0.9165
1614	0.9201
1605	0.9223
1596	0.9115
1587	0.8857
1578	0.8771
1569	0.86
1560	0.812
1551	0.8154
1542	0.8196
1533	0.8611
1524	0.8589
1515	0.8641
1506	0.85
1497	0.8334
1488	0.8114
1479	0.6786
1470	0.1087
1461	0.1943
1452	0.424
1443	0.5869
1434	0.7119
1425	0.8023
1416	0.8462
1407	0.8658
1398	0.8784
1389	0.8622
1380	0.4299
1371	0.7503
1362	0.8087
1353	0.8246
1344	0.8322
1335	0.8352
1326	0.8628
1317	0.8584
1308	0.8399
1299	0.8282
1290	0.8385
1281	0.8582
1272	0.8816
1263	0.901
1254	0.916
1245	0.9271
1236	0.9391
1227	0.952
1218	0.9598
1209	0.9647
1200	0.9642
1191	0.964
1182	0.9607
1173	0.9559
1164	0.9621
1155	0.9645
1146	0.9638
1137	0.9616
1128	0.9575
1119	0.9769
1110	0.9914
1101	0.9807
1092	0.9531
1083	0.9507
1074	0.9452
1065	0.9472
1056	0.9513
1047	0.9565
1038	0.9598
1029	0.9608
1020	0.9607
1011	0.962
1002	0.9594
993	0.9576
984	0.9645
975	0.9691
966	0.9706
957	0.9658
948	0.9633
939	0.962
930	0.9633
921	0.9646
912	0.9627
903	0.9505
894	0.9523
885	0.9519
876	0.9515
867	0.9572
858	0.9685
849	0.9361
840	0.9565
831	0.9575
822	0.9575
813	0.9616
804	0.971
795	0.9739
786	0.9648
777	0.9464
768	0.9421
759	0.927
750	0.9317
741	0.9123
732	0.8659
723	0.7676
714	0.781
705	0.8965
696	0.9467
687	0.9698
678	0.9839
669	1.0065
660	0.9917
651	0.9786
642	0.9591
633	0.9514
624	0.9526
615	0.9566
606	0.9576
597	0.9605
588	0.9622
579	0.9614
570	0.9615
561	0.9589
552	0.9548
543	0.9544
534	0.9522
525	0.9464
516	0.9413
507	0.9394
498	0.9382
489	0.9374
480	0.937
471	0.9369
462	0.9371
453	0.9372
444	0.9371
435	0.9365
426	0.9362
