Infrared Spectrum: n-PENTANE
Formula: C5 H12
CAS: 109-66-0
State: SOLUTION (CCl4, CS2) VS SOLVENT
Class: COBLENTZ III
Instrument: CARY 90 (GRATING)
Instrument parameters: ORDER CHANGES: 3000, 2000, 1200 CM^-^1
Sampling: TRANSMISSION
Path length: 0.005 CM, AND 0.005 CM
Resolution: 2
Origin: WESTERN REGIONAL RES. USDA
1/CM	TRANSMITTANCE
4024	0.9184
4015.02	0.9212
4006.04	0.9245
3997.06	0.9261
3988.08	0.9265
3979.1	0.9273
3970.12	0.9285
3961.14	0.9301
3952.16	0.9318
3943.18	0.9323
3934.2	0.9314
3925.22	0.9305
3916.24	0.9296
3907.26	0.9296
3898.28	0.9308
3889.3	0.932
3880.32	0.9344
3871.34	0.9367
3862.35	0.9383
3853.37	0.9384
3844.39	0.9385
3835.41	0.9386
3826.43	0.938
3817.45	0.9367
3808.47	0.9354
3799.49	0.9342
3790.51	0.9329
3781.53	0.9328
3772.55	0.9329
3763.57	0.9331
3754.59	0.9326
3745.61	0.9319
3736.63	0.9313
3727.65	0.9306
3718.67	0.9299
3709.69	0.9292
3700.71	0.9285
3691.73	0.9275
3682.75	0.9267
3673.77	0.9259
3664.79	0.925
3655.81	0.9247
3646.83	0.9243
3637.85	0.924
3628.87	0.9242
3619.89	0.9253
3610.91	0.9262
3601.93	0.9271
3592.95	0.9278
3583.97	0.9287
3574.99	0.9291
3566.01	0.9295
3557.02	0.9299
3548.04	0.9304
3539.06	0.9308
3530.08	0.9313
3521.1	0.9317
3512.12	0.9323
3503.14	0.9325
3494.16	0.933
3485.18	0.9333
3476.2	0.9337
3467.22	0.9341
3458.24	0.9344
3449.26	0.9343
3440.28	0.9339
3431.3	0.9333
3422.32	0.9328
3413.34	0.9322
3404.36	0.9313
3395.38	0.9304
3386.4	0.9286
3377.42	0.9284
3368.44	0.9292
3359.46	0.9299
3350.48	0.9307
3341.5	0.9308
3332.52	0.93
3323.54	0.9292
3314.56	0.9289
3305.58	0.9287
3296.6	0.9284
3287.62	0.9279
3278.64	0.9271
3269.66	0.9264
3260.68	0.9256
3251.69	0.9241
3242.71	0.9226
3233.73	0.9181
3224.75	0.9122
3215.77	0.906
3206.79	0.8998
3197.81	0.8951
3188.83	0.894
3179.85	0.8947
3170.87	0.8952
3161.89	0.8959
3152.91	0.8962
3143.93	0.8957
3134.95	0.8951
3125.97	0.8916
3116.99	0.8874
3108.01	0.8834
3099.03	0.8784
3090.05	0.8709
3081.07	0.8625
3072.09	0.8534
3063.11	0.8429
3054.13	0.8262
3045.15	0.8087
3036.17	0.7885
3027.19	0.7614
3018.21	0.7325
3009.23	0.6628
3000.25	0.4723
2991.27	0.2694
2982.29	0.0665
2973.31	0.0054
2964.33	0.0037
2955.35	0.0093
2946.36	0.0116
2937.38	0.0077
2928.4	0.009
2919.42	0.0186
2910.44	0.049
2901.46	0.0946
2892.48	0.1402
2883.5	0.0921
2874.52	0.0235
2865.54	0.0353
2856.56	0.0665
2847.58	0.1892
2838.6	0.4352
2829.62	0.4982
2820.64	0.6181
2811.66	0.6814
2802.68	0.7324
2793.7	0.7748
2784.72	0.8102
2775.74	0.8339
2766.76	0.853
2757.78	0.8647
2748.8	0.8653
2739.82	0.847
2730.84	0.827
2721.86	0.8501
2712.88	0.8709
2703.9	0.8839
2694.92	0.891
2685.94	0.8983
2676.96	0.8862
2667.98	0.8737
2659	0.878
2650.02	0.8968
2641.03	0.905
2632.05	0.903
2623.07	0.8931
2614.09	0.889
2605.11	0.8912
2596.13	0.8956
2587.15	0.9001
2578.17	0.9053
2569.19	0.9119
2560.21	0.9192
2551.23	0.9266
2542.25	0.9287
2533.27	0.9286
2524.29	0.9286
2515.31	0.9292
2506.33	0.9305
2497.35	0.9316
2488.37	0.9316
2479.39	0.9315
2470.41	0.9308
2461.43	0.93
2452.45	0.9299
2443.47	0.9299
2434.49	0.9296
2425.51	0.9299
2416.53	0.9302
2407.55	0.929
2398.57	0.9266
2389.59	0.9252
2380.61	0.9238
2371.63	0.9223
2362.65	0.9217
2353.67	0.9227
2344.69	0.9238
2335.71	0.9248
2326.72	0.9258
2317.74	0.9269
2308.76	0.9279
2299.78	0.929
2290.8	0.9301
2281.82	0.9312
2272.84	0.9323
2263.86	0.9334
2254.88	0.934
2245.9	0.9345
2236.92	0.9349
2227.94	0.9352
2218.96	0.9347
2209.98	0.9342
2201	0.9336
2192.02	0.9331
2183.04	0.9325
2174.06	0.9325
2165.08	0.9327
2156.1	0.9328
2147.12	0.933
2138.14	0.9339
2129.16	0.9348
2120.18	0.9358
2111.2	0.9368
2102.22	0.9374
2093.24	0.937
2084.26	0.9368
2075.28	0.9365
2066.3	0.9362
2057.32	0.9353
2048.34	0.9346
2039.36	0.9344
2030.38	0.9343
2021.39	0.9332
2012.41	0.9307
2003.43	0.9295
1994.45	0.9263
1985.47	0.9259
1976.49	0.927
1967.51	0.9276
1958.53	0.926
1949.55	0.9259
1940.57	0.9256
1931.59	0.9251
1922.61	0.9241
1913.63	0.9226
1904.65	0.9233
1895.67	0.9241
1886.69	0.9255
1877.71	0.9268
1868.73	0.9281
1859.75	0.9293
1850.77	0.9295
1841.79	0.9296
1832.81	0.9292
1823.83	0.9285
1814.85	0.9271
1805.87	0.9257
1796.89	0.925
1787.91	0.924
1778.93	0.9254
1769.95	0.9265
1760.97	0.9267
1751.99	0.9252
1743.01	0.903
1734.03	0.8873
1725.05	0.8904
1716.06	0.9118
1707.08	0.921
1698.1	0.9218
1689.12	0.9213
1680.14	0.9204
1671.16	0.9196
1662.18	0.9191
1653.2	0.9197
1644.22	0.9206
1635.24	0.9214
1626.26	0.9224
1617.28	0.9237
1608.3	0.9263
1599.32	0.9334
1590.34	0.9369
1581.36	0.9345
1572.38	0.94
1563.4	0.9458
1554.42	0.9496
1545.44	0.9519
1536.46	0.9467
1527.48	0.9275
1518.5	0.906
1509.52	0.8854
1500.54	0.8565
1491.56	0.8138
1482.58	0.7475
1473.6	0.5471
1464.62	0.1976
1455.64	0.1953
1446.66	0.3813
1437.68	0.6268
1428.7	0.7511
1419.72	0.8031
1410.73	0.8313
1401.75	0.8389
1392.77	0.8224
1383.79	0.6563
1374.81	0.4632
1365.83	0.7552
1356.85	0.8441
1347.87	0.8707
1338.89	0.8346
1329.91	0.8809
1320.93	0.879
1311.95	0.8902
1302.97	0.8676
1293.99	0.8675
1285.01	0.8671
1276.03	0.8871
1267.05	0.8592
1258.07	0.8688
1249.09	0.9042
1240.11	0.9199
1231.13	0.9213
1222.15	0.9345
1213.17	0.9403
1204.19	0.9405
1195.21	0.9515
1186.23	0.9526
1177.25	0.9444
1168.27	0.9322
1159.29	0.9304
1150.31	0.9253
1141.33	0.9005
1132.35	0.9165
1123.37	0.9437
1114.39	0.9569
1105.4	0.963
1096.42	0.9602
1087.44	0.9582
1078.46	0.9428
1069.48	0.9215
1060.5	0.9403
1051.52	0.9557
1042.54	0.9539
1033.56	0.9386
1024.58	0.9199
1015.6	0.9197
1006.62	0.9316
997.641	0.9419
988.661	0.9416
979.681	0.9496
970.701	0.9557
961.72	0.9581
952.74	0.9587
943.76	0.9593
934.779	0.9588
925.799	0.9503
916.819	0.8714
907.839	0.8364
898.858	0.8667
889.878	0.9182
880.898	0.9328
871.917	0.9029
862.937	0.8384
853.957	0.8769
844.977	0.9439
835.996	0.9443
827.016	0.9573
818.036	0.9671
809.055	0.9705
800.075	0.9672
791.095	0.9642
782.114	0.9645
773.134	0.9569
764.154	0.9084
755.174	0.9342
746.193	0.9448
737.213	0.8561
728.233	0.7794
719.252	0.8643
710.272	0.9305
701.292	0.9506
692.312	0.961
683.331	0.9643
674.351	0.9637
665.371	0.9621
656.39	0.9613
647.41	0.9607
638.43	0.9601
629.449	0.9597
620.469	0.9596
611.489	0.96
602.509	0.9607
593.528	0.9604
584.548	0.9601
575.568	0.9604
566.587	0.9594
557.607	0.9533
548.627	0.9417
539.647	0.9349
530.666	0.9346
521.686	0.9318
512.706	0.9237
503.725	0.9116
494.745	0.8986
485.765	0.8866
