Infrared Spectrum: n-Pentane
Formula: C5 H12
CAS: 109-66-0
State: LIQUID (NEAT)
Class: COBLENTZ III
Instrument: CARY 90 (GRATING)
Instrument parameters: ORDER CHANGES: 3000, 2000, 1200 CM^-^1
Path length: 0.01 CM
Resolution: 2
Origin: WESTERN REGIONAL RES. USDA
1/CM	TRANSMITTANCE
448	0.4585
457	0.4861
466	0.5183
475	0.5605
484	0.6041
493	0.6494
502	0.6872
511	0.7081
520	0.7282
529	0.7483
538	0.771
547	0.8119
556	0.8453
565	0.8722
574	0.8904
583	0.8971
592	0.8988
601	0.9029
610	0.9126
619	0.9095
628	0.9048
637	0.9059
646	0.9121
655	0.9077
664	0.893
673	0.8811
682	0.8846
691	0.8484
700	0.7978
709	0.6725
718	0.3896
727	0.2059
736	0.4054
745	0.6761
754	0.6636
763	0.5668
772	0.751
781	0.7985
790	0.8397
799	0.8763
808	0.8713
817	0.8639
826	0.8487
835	0.7611
844	0.7471
853	0.5024
862	0.4934
871	0.6458
880	0.7284
889	0.58
898	0.3962
907	0.5068
916	0.4594
925	0.7661
934	0.8341
943	0.8539
952	0.8458
961	0.8421
970	0.8411
979	0.783
988	0.7731
997	0.7688
1006	0.69
1015	0.6712
1024	0.6427
1033	0.7388
1042	0.8224
1051	0.8291
1060	0.7223
1069	0.7052
1078	0.8134
1087	0.8526
1096	0.8627
1105	0.8542
1114	0.8379
1123	0.7783
1132	0.5804
1141	0.586
1150	0.7333
1159	0.742
1168	0.7797
1177	0.8284
1186	0.8572
1195	0.8631
1204	0.8531
1213	0.8216
1222	0.8227
1231	0.7488
1240	0.7525
1249	0.7231
1258	0.5674
1267	0.6969
1276	0.7656
1285	0.7349
1294	0.6811
1303	0.5742
1312	0.6766
1321	0.6647
1330	0.6096
1339	0.4515
1348	0.5917
1357	0.4545
1366	0.2662
1375	0.0296
1384	0.116
1393	0.3405
1402	0.4668
1411	0.443
1420	0.3765
1429	0.2677
1438	0.1095
1447	0.0157
1456	0.0042
1465	0.0059
1474	0.0158
1483	0.1655
1492	0.3513
1501	0.5161
1510	0.6311
1519	0.6825
1528	0.7309
1537	0.7657
1546	0.7873
1555	0.8055
1564	0.8173
1573	0.8234
1582	0.8274
1591	0.8333
1600	0.8474
1609	0.8657
1618	0.8716
1627	0.875
1636	0.8762
1645	0.875
1654	0.8722
1663	0.8655
1672	0.8698
1681	0.8782
1690	0.8885
1699	0.8974
1708	0.9048
1717	0.9104
1726	0.9104
1735	0.9086
1744	0.9174
1753	0.9262
1762	0.9306
1771	0.9304
1780	0.9306
1789	0.9359
1798	0.9405
1807	0.9423
1816	0.9434
1825	0.947
1834	0.9435
1843	0.9422
1852	0.9406
1861	0.9406
1870	0.9411
1879	0.9396
1888	0.9287
1897	0.9141
1906	0.9204
1915	0.9342
1924	0.9371
1933	0.9414
1942	0.9462
1951	0.9492
1960	0.9512
1969	0.9516
1978	0.9507
1987	0.9474
1996	0.9451
2005	0.9632
2014	0.9553
2023	0.9194
2032	0.911
2041	0.9364
2050	0.9501
2059	0.9561
2068	0.9605
2077	0.9637
2086	0.9658
2095	0.9658
2104	0.965
2113	0.962
2122	0.9571
2131	0.9499
2140	0.9422
2149	0.9328
2158	0.9241
2167	0.9185
2176	0.924
2185	0.9298
2194	0.9271
2203	0.9236
2212	0.9218
2221	0.9229
2230	0.9275
2239	0.9269
2248	0.9259
2257	0.924
2266	0.9204
2275	0.9145
2284	0.907
2293	0.905
2302	0.9039
2311	0.8976
2320	0.8899
2329	0.8877
2338	0.8905
2347	0.8913
2356	0.8905
2365	0.8893
2374	0.8888
2383	0.8859
2392	0.8781
2401	0.8562
2410	0.8612
2419	0.8991
2428	0.9132
2437	0.9094
2446	0.9047
2455	0.9025
2464	0.9024
2473	0.9039
2482	0.907
2491	0.9101
2500	0.9116
2509	0.9101
2518	0.906
2527	0.9027
2536	0.8989
2545	0.8949
2554	0.8871
2563	0.8553
2572	0.8312
2581	0.809
2590	0.7631
2599	0.7317
2608	0.71
2617	0.6947
2626	0.7052
2635	0.7406
2644	0.7479
2653	0.7013
2662	0.6452
2671	0.6302
2680	0.6856
2689	0.7033
2698	0.6931
2707	0.6694
2716	0.6478
2725	0.5333
2734	0.4434
2743	0.4788
2752	0.5976
2761	0.5959
2770	0.5644
2779	0.5172
2788	0.4478
2797	0.3784
2806	0.3125
2815	0.255
2824	0.198
2833	0.1514
2842	0.0422
2851	0.005
2860	0.0052
2869	0.0053
2878	0.0055
2887	0.0056
2896	0.0058
2905	0.0059
2914	0.0061
2923	0.0062
2932	0.0064
2941	0.0065
2950	0.0067
2959	0.0068
2968	0.007
2977	0.0071
2986	0.0073
2995	0.0074
3004	0.0209
3013	0.1021
3022	0.1981
3031	0.2917
3040	0.3496
3049	0.422
3058	0.4839
3067	0.5408
3076	0.5756
3085	0.6166
3094	0.649
3103	0.669
3112	0.6908
3121	0.7105
3130	0.7244
3139	0.7275
3148	0.7255
3157	0.7184
3166	0.7129
3175	0.7072
3184	0.7027
3193	0.7019
3202	0.7073
3211	0.7368
3220	0.7673
3229	0.8041
3238	0.8331
3247	0.8468
3256	0.8597
3265	0.8716
3274	0.8828
3283	0.8909
3292	0.8972
3301	0.8972
3310	0.8954
3319	0.8976
3328	0.9007
3337	0.903
3346	0.9038
3355	0.9027
3364	0.897
3373	0.8768
3382	0.8771
3391	0.8961
3400	0.9059
3409	0.9093
3418	0.9117
3427	0.9128
3436	0.9105
3445	0.9159
3454	0.9242
3463	0.9268
3472	0.9284
3481	0.9296
3490	0.9307
3499	0.9311
3508	0.9293
3517	0.9277
3526	0.9274
3535	0.9279
3544	0.9291
3553	0.9287
3562	0.9281
3571	0.927
3580	0.9256
3589	0.9232
3598	0.9181
3607	0.9123
3616	0.9062
3625	0.8999
3634	0.8939
3643	0.8889
3652	0.8881
3661	0.8892
3670	0.8902
3679	0.8901
3688	0.8872
3697	0.8846
3706	0.8886
3715	0.8939
3724	0.8963
3733	0.8898
3742	0.8813
3751	0.8825
3760	0.8881
3769	0.8819
3778	0.8685
3787	0.8685
3796	0.8747
3805	0.8816
3814	0.8884
3823	0.8946
3832	0.8991
3841	0.8968
3850	0.8935
3859	0.8887
3868	0.8796
3877	0.8695
3886	0.8619
3895	0.8611
3904	0.8618
3913	0.8661
3922	0.875
3931	0.8817
3940	0.8859
3949	0.8864
3958	0.8838
3967	0.8798
3976	0.8747
3985	0.8706
3994	0.8675
4003	0.8536
4012	0.8364
