Infrared Spectrum: TETRADECANE
Formula: C14 H30
CAS: 629-59-4
State: LIQUID (NEAT)
Class: COBLENTZ II
Instrument: PERKIN-ELMER 180 (GRATING)
Instrument parameters: GRATING CHANGES AT 2000, 1000, 500, 250 CM^-^1
Sampling: TRANSMISSION
Path length: 0.0032 CM KBr CELL
Resolution: 4
Origin: STANDARD OIL OF OHIO
1/CM	TRANSMITTANCE
295.065	0.069
304.416	0.119
313.766	0.158
323.117	0.21
332.468	0.272
341.818	0.357
351.169	0.425
360.52	0.488
369.87	0.548
379.221	0.599
388.571	0.639
397.922	0.686
407.273	0.732
416.623	0.762
425.974	0.788
435.325	0.803
444.675	0.818
454.026	0.83
463.377	0.843
472.727	0.852
482.078	0.856
491.429	0.859
500.779	0.896
510.13	0.901
519.48	0.902
528.831	0.905
538.182	0.906
547.532	0.909
556.883	0.91
566.234	0.911
575.584	0.907
584.935	0.907
594.286	0.906
603.636	0.903
612.987	0.902
622.338	0.902
631.688	0.901
641.039	0.902
650.389	0.898
659.74	0.893
669.091	0.887
678.441	0.881
687.792	0.862
697.143	0.809
706.493	0.666
715.844	0.372
725.195	0.611
734.545	0.714
743.896	0.77
753.247	0.772
762.597	0.782
771.948	0.8
781.298	0.805
790.649	0.835
800	0.844
809.35	0.851
818.701	0.85
828.052	0.847
837.402	0.847
846.753	0.849
856.104	0.848
865.454	0.84
874.805	0.83
884.156	0.788
893.506	0.816
902.857	0.827
912.207	0.84
921.558	0.843
930.909	0.844
940.259	0.846
949.61	0.842
958.961	0.843
968.311	0.84
977.662	0.84
987.013	0.845
996.363	0.846
1005.71	0.865
1015.06	0.86
1024.42	0.854
1033.77	0.849
1043.12	0.847
1052.47	0.839
1061.82	0.831
1071.17	0.813
1080.52	0.826
1089.87	0.839
1099.22	0.836
1108.57	0.854
1117.92	0.866
1127.27	0.838
1136.62	0.843
1145.97	0.858
1155.32	0.857
1164.67	0.848
1174.03	0.846
1183.38	0.848
1192.73	0.848
1202.08	0.851
1211.43	0.841
1220.78	0.838
1230.13	0.831
1239.48	0.819
1248.83	0.811
1258.18	0.793
1267.53	0.781
1276.88	0.769
1286.23	0.749
1295.58	0.713
1304.93	0.713
1314.29	0.763
1323.64	0.779
1332.99	0.734
1342.34	0.693
1351.69	0.667
1361.04	0.646
1370.39	0.544
1379.74	0.5119
1389.09	0.738
1398.44	0.755
1407.79	0.748
1417.14	0.715
1426.49	0.6341
1435.84	0.4131
1445.19	0.2571
1454.54	0.053
1463.9	0.021
1473.25	0.4719
1482.6	0.688
1491.95	0.748
1501.3	0.778
1510.65	0.801
1520	0.82
1529.35	0.83
1538.7	0.84
1548.05	0.847
1557.4	0.85
1566.75	0.853
1576.1	0.854
1585.45	0.855
1594.8	0.857
1604.16	0.858
1613.51	0.859
1622.86	0.862
1632.21	0.866
1641.56	0.867
1650.91	0.868
1660.26	0.869
1669.61	0.869
1678.96	0.867
1688.31	0.867
1697.66	0.868
1707.01	0.87
1716.36	0.872
1725.71	0.874
1735.06	0.873
1744.41	0.876
1753.77	0.878
1763.12	0.879
1772.47	0.877
1781.82	0.876
1791.17	0.877
1800.52	0.877
1809.87	0.877
1819.22	0.876
1828.57	0.876
1837.92	0.877
1847.27	0.879
1856.62	0.878
1865.97	0.878
1875.32	0.877
1884.67	0.877
1894.03	0.874
1903.38	0.874
1912.73	0.874
1922.08	0.874
1931.43	0.876
1940.78	0.874
1950.13	0.879
1959.48	0.877
1968.83	0.876
1978.18	0.875
1987.53	0.878
1996.88	0.875
2006.23	0.883
2015.58	0.875
2024.93	0.871
2034.28	0.8725
2043.64	0.876
2052.99	0.877
2062.34	0.882
2071.69	0.8855
2081.04	0.887
2090.39	0.8886
2099.74	0.889
2109.09	0.888
2118.44	0.886
2127.79	0.885
2137.14	0.88
2146.49	0.8774
2155.84	0.877
2165.19	0.8796
2174.54	0.8789
2183.9	0.8804
2193.25	0.8821
2202.6	0.8814
2211.95	0.881
2221.3	0.8793
2230.65	0.878
2240	0.876
2249.35	0.8752
2258.7	0.8733
2268.05	0.875
2277.4	0.8747
2286.75	0.8738
2296.1	0.872
2305.45	0.871
2314.8	0.8673
2324.15	0.866
2333.51	0.865
2342.86	0.865
2352.21	0.868
2361.56	0.8667
2370.91	0.8678
2380.26	0.868
2389.61	0.8678
2398.96	0.8693
2408.31	0.871
2417.66	0.8696
2427.01	0.872
2436.36	0.8707
2445.71	0.869
2455.06	0.8703
2464.41	0.8718
2473.77	0.87
2483.12	0.871
2492.47	0.8696
2501.82	0.8671
2511.17	0.863
2520.52	0.8571
2529.87	0.8496
2539.22	0.846
2548.57	0.844
2557.92	0.8382
2567.27	0.8292
2576.62	0.8201
2585.97	0.8101
2595.32	0.8012
2604.67	0.7936
2614.02	0.788
2623.38	0.7795
2632.73	0.772
2642.08	0.7646
2651.43	0.755
2660.78	0.7391
2670.13	0.717
2679.48	0.7145
2688.83	0.7301
2698.18	0.752
2707.53	0.7539
2716.88	0.7393
2726.23	0.7141
2735.58	0.7142
2744.93	0.726
2754.28	0.7244
2763.64	0.7167
2772.99	0.6998
2782.34	0.6644
2791.69	0.6225
2801.04	0.5681
2810.39	0.4846
2819.74	0.3842
2829.09	0.266
2838.44	0.0477
2847.79	0
2857.14	0
2866.49	0
2875.84	0
2885.19	0
2894.54	0
2903.89	0
2913.25	0
2922.6	0
2931.95	0
2941.3	0
2950.65	0
2960	0
2969.35	0.0369
2978.7	0.1938
2988.05	0.371
2997.4	0.4599
3006.75	0.5427
3016.1	0.6058
3025.45	0.6472
3034.8	0.6961
3044.15	0.7231
3053.5	0.7421
3062.86	0.7619
3072.21	0.7724
3081.56	0.7869
3090.91	0.7998
3100.26	0.8093
3109.61	0.8188
3118.96	0.8223
3128.31	0.825
3137.66	0.8267
3147.01	0.826
3156.36	0.826
3165.71	0.8279
3175.06	0.828
3184.41	0.829
3193.76	0.8304
3203.12	0.8395
3212.47	0.8484
3221.82	0.8538
3231.17	0.8594
3240.52	0.8619
3249.87	0.861
3259.22	0.861
3268.57	0.8641
3277.92	0.863
3287.27	0.8665
3296.62	0.868
3305.97	0.87
3315.32	0.868
3324.67	0.8705
3334.02	0.867
3343.37	0.8675
3352.73	0.866
3362.08	0.861
3371.43	0.86
3380.78	0.8605
3390.13	0.862
3399.48	0.8615
3408.83	0.868
3418.18	0.8674
3427.53	0.869
3436.88	0.869
3446.23	0.869
3455.58	0.8686
3464.93	0.869
3474.28	0.8696
3483.63	0.871
3492.99	0.872
3502.34	0.8741
3511.69	0.876
3521.04	0.878
3530.39	0.879
3539.74	0.878
3549.09	0.8753
3558.44	0.8738
3567.79	0.8723
3577.14	0.8698
3586.49	0.8663
3595.84	0.8618
3605.19	0.8526
3614.54	0.851
3623.89	0.8537
3633.24	0.856
3642.6	0.859
3651.95	0.856
3661.3	0.8567
3670.65	0.857
3680	0.857
3689.35	0.855
3698.7	0.8558
3708.05	0.8577
3717.4	0.8568
3726.75	0.858
3736.1	0.858
3745.45	0.8593
3754.8	0.8592
3764.15	0.8567
3773.5	0.856
3782.86	0.856
3792.21	0.855
3801.56	0.853
3810.91	0.851
3820.26	0.851
3829.61	0.851
3838.96	0.851
3848.31	0.851
3857.66	0.852
3867.01	0.852
3876.36	0.852
3885.71	0.851
3895.06	0.85
3904.41	0.849
3913.76	0.848
3923.11	0.8471
3932.47	0.847
3941.82	0.846
3951.17	0.846
3960.52	0.846
3969.87	0.8445
3979.22	0.84
3988.57	0.8325
3997.92	0.831
