Infrared Spectrum: n-NONANE
Formula: C9 H20
CAS: 111-84-2
State: LIQUID (NEAT)
Class: COBLENTZ III
Instrument: DOW KBr FOREPRISM-GRATING
Instrument parameters: GRATING BLAZED AT 3.5, 12.0, 20.0 MICRONS AND CHANGED AT 5.0, 7.5, 14.9 MICRONS
Sampling: TRANSMISSION
Path length: 0.011 CM
Resolution: 4
Origin: DOW CHEMICAL COMPANY
1/CM	TRANSMITTANCE
446.568	0.944
455.354	0.951
464.141	0.955
472.927	0.959
481.714	0.959
490.5	0.961
499.286	0.969
508.073	0.977
516.859	0.983
525.646	0.987
534.432	0.998
543.218	1.002
552.005	1.008
560.791	1.008
569.578	1.005
578.364	1.004
587.15	1.005
595.937	1.006
604.723	1.008
613.509	1.012
622.296	1.013
631.082	1.013
639.869	1.013
648.655	1.013
657.441	1.008
666.228	1.002
675.014	0.997
683.801	0.98
692.587	0.937
701.373	0.85
710.16	0.619
718.946	0.123
727.733	0.246
736.519	0.388
745.305	0.564
754.092	0.583
762.878	0.694
771.665	0.731
780.451	0.721
789.237	0.825
798.024	0.925
806.81	0.951
815.597	0.93
824.383	0.871
833.169	0.85
841.956	0.839
850.742	0.853
859.529	0.887
868.315	0.85
877.101	0.795
885.888	0.708
894.674	0.586
903.46	0.762
912.247	0.863
921.033	0.824
929.82	0.807
938.606	0.875
947.392	0.832
956.179	0.806
964.965	0.752
973.752	0.748
982.538	0.778
991.324	0.796
1000.11	0.864
1008.9	0.892
1017.68	0.893
1026.47	0.893
1035.26	0.861
1044.04	0.804
1052.83	0.803
1061.62	0.792
1070.4	0.775
1079.19	0.708
1087.97	0.677
1096.76	0.793
1105.55	0.925
1114.33	0.926
1123.12	0.903
1131.91	0.778
1140.69	0.756
1149.48	0.832
1158.27	0.879
1167.05	0.899
1175.84	0.89
1184.63	0.853
1193.41	0.853
1202.2	0.869
1210.98	0.856
1219.77	0.813
1228.56	0.853
1237.34	0.835
1246.13	0.781
1254.92	0.723
1263.7	0.717
1272.49	0.737
1281.28	0.63
1290.06	0.571
1298.85	0.55
1307.63	0.499
1316.42	0.591
1325.21	0.668
1333.99	0.5819
1342.78	0.362
1351.57	0.471
1360.35	0.443
1369.14	0.2869
1377.93	0.029
1386.71	0.1631
1395.5	0.4591
1404.28	0.535
1413.07	0.522
1421.86	0.448
1430.64	0.3068
1439.43	0.066
1448.22	0.012
1457	0.008
1465.79	0.008
1474.58	0.011
1483.36	0.2151
1492.15	0.4141
1500.94	0.553
1509.72	0.637
1518.51	0.644
1527.29	0.6
1536.08	0.774
1544.87	0.832
1553.65	0.864
1562.44	0.889
1571.23	0.892
1580.01	0.907
1588.8	0.915
1597.59	0.923
1606.37	0.923
1615.16	0.925
1623.94	0.925
1632.73	0.928
1641.52	0.932
1650.3	0.941
1659.09	0.946
1667.88	0.946
1676.66	0.946
1685.45	0.947
1694.24	0.95
1703.02	0.961
1711.81	0.968
1720.6	0.972
1729.38	0.973
1738.17	0.976
1746.95	0.988
1755.74	0.998
1764.53	1.001
1773.31	1.004
1782.1	1.004
1790.89	1.004
1799.67	1.004
1808.46	1.004
1817.25	1.006
1826.03	1.006
1834.82	1.006
1843.6	1.005
1852.39	1.002
1861.18	1
1869.96	0.997
1878.75	0.997
1887.54	0.998
1896.32	1
1905.11	1
1913.9	1
1922.68	1.001
1931.47	1.001
1940.25	1.001
1949.04	1
1957.83	0.997
1966.61	1.001
1975.4	1.002
1984.19	1.002
1992.97	0.998
2001.76	0.993
2010.55	0.982
2019.33	0.955
2028.12	0.957
2036.91	0.965
2045.69	0.97
2054.48	0.976
2063.26	0.9819
2072.05	0.987
2080.84	0.9899
2089.62	0.99
2098.41	0.987
2107.2	0.987
2115.98	0.986
2124.77	0.983
2133.56	0.9731
2142.34	0.965
2151.13	0.954
2159.91	0.95
2168.7	0.95
2177.49	0.95
2186.27	0.948
2195.06	0.9471
2203.85	0.947
2212.63	0.947
2221.42	0.947
2230.21	0.947
2238.99	0.944
2247.78	0.941
2256.57	0.9361
2265.35	0.934
2274.14	0.933
2282.92	0.932
2291.71	0.9321
2300.5	0.9291
2309.28	0.9232
2318.07	0.919
2326.86	0.9152
2335.64	0.912
2344.43	0.91
2353.22	0.9109
2362	0.9164
2370.79	0.9278
2379.57	0.921
2388.36	0.921
2397.15	0.921
2405.93	0.921
2414.72	0.921
2423.51	0.9229
2432.29	0.93
2441.08	0.9452
2449.87	0.952
2458.65	0.955
2467.44	0.955
2476.22	0.955
2485.01	0.9502
2493.8	0.9306
2502.58	0.9216
2511.37	0.9051
2520.16	0.8903
2528.94	0.8833
2537.73	0.8725
2546.52	0.8615
2555.3	0.8474
2564.09	0.8349
2572.88	0.8153
2581.66	0.766
2590.45	0.7357
2599.23	0.7159
2608.02	0.6908
2616.81	0.68
2625.59	0.679
2634.38	0.6762
2643.17	0.6321
2651.95	0.5928
2660.74	0.5639
2669.53	0.5134
2678.31	0.5423
2687.1	0.5744
2695.88	0.6136
2704.67	0.6097
2713.46	0.5734
2722.24	0.515
2731.03	0.4132
2739.82	0.4938
2748.6	0.5235
2757.39	0.5202
2766.18	0.5014
2774.96	0.4488
2783.75	0.3509
2792.54	0.2719
2801.32	0.1731
2810.11	0.1045
2818.89	0.0459
2827.68	0.0118
2836.47	0
2845.25	0
2854.04	0
2862.83	0
2871.61	0
2880.4	0
2889.19	0
2897.97	0
2906.76	0.001
2915.54	0.001
2924.33	0.001
2933.12	0.001
2941.9	0.002
2950.69	0.004
2959.48	0.005
2968.26	0.008
2977.05	0.009
2985.84	0.0178
2994.62	0.0478
3003.41	0.1191
3012.2	0.2202
3020.98	0.2783
3029.77	0.3567
3038.55	0.4285
3047.34	0.4964
3056.13	0.5558
3064.91	0.6123
3073.7	0.6537
3082.49	0.6936
3091.27	0.723
3100.06	0.7473
3108.85	0.7703
3117.63	0.7846
3126.42	0.791
3135.2	0.791
3143.99	0.791
3152.78	0.791
3161.56	0.791
3170.35	0.7916
3179.14	0.793
3187.92	0.7973
3196.71	0.8125
3205.5	0.8456
3214.28	0.8822
3223.07	0.9095
3231.85	0.9222
3240.64	0.9326
3249.43	0.9422
3258.21	0.9492
3267	0.9516
3275.79	0.952
3284.57	0.952
3293.36	0.951
3302.15	0.951
3310.93	0.95
3319.72	0.95
3328.51	0.9488
3337.29	0.947
3346.08	0.947
3354.86	0.947
3363.65	0.947
3372.44	0.947
3381.22	0.9491
3390.01	0.9516
3398.8	0.952
3407.58	0.954
3416.37	0.955
3425.16	0.9616
3433.94	0.9696
3442.73	0.975
3451.51	0.9776
3460.3	0.9835
3469.09	0.988
3477.87	0.99
3486.66	0.993
3495.45	0.9975
3504.23	1
3513.02	0.998
3521.81	1
3530.59	1
3539.38	0.997
3548.17	0.9935
3556.95	0.989
3565.74	0.985
3574.52	0.982
3583.31	0.977
3592.1	0.961
3600.88	0.93
3609.67	0.931
3618.46	0.9335
3627.24	0.935
3636.03	0.9365
3644.82	0.939
3653.6	0.9405
3662.39	0.941
3671.17	0.941
3679.96	0.9419
3688.75	0.946
3697.53	0.948
3706.32	0.948
3715.11	0.947
3723.89	0.9401
3732.68	0.934
3741.47	0.9349
3750.25	0.936
3759.04	0.936
3767.82	0.934
3776.61	0.933
3785.4	0.9349
3794.18	0.937
